/*--------------------------------*- C++ -*----------------------------------*\
| =========                 |                                                 |
| \\      /  F ield         | OpenFOAM: The Open Source CFD Toolbox           |
|  \\    /   O peration     | Version:  2.1.x                                 |
|   \\  /    A nd           | Web:      www.OpenFOAM.org                      |
|    \\/     M anipulation  |                                                 |
\*---------------------------------------------------------------------------*/
FoamFile
{
    version     2.0;
    format      ascii;
    class       dictionary;
    location    "constant";
    object      transportProperties;
}
// * * * * * * * * * * * * * * * * * * * * * * * * * * * * * * * * * * * * * //
#include "../generatedInput"

dimx        dimx [0 1 0 0 0 0 0] 1;
dimt        dimt [0 0 1 0 0 0 0] 1;
L_s         L_s [0 0 0 0 0 0 0]  $INTERFACE_MOBILITY;
L_s_r       L_s_r [-1 1 1 0 0 0 0] 2.5e-06;
L_e         L_e [0 0 0 0 0 0 0]  $KINETIC_COEFF;
L_e_r       L_e_r [0 0 -1 0 0 0 0] 0.001;
W           W [0 0 0 0 0 0 0]  $BARRIER_HEIGHT;
W_r         W_r [1 -1 -2 0 0 0 0] 1.67e06;
k           k [0 0 0 0 0 0 0]  $GRADIENT_ENERGY_COEFF;
k_r         k_r [1 1 -2 0 0 0 0] 3.34e-03;
alpha       alpha [0 0 0 0 0 0 0]  $ALPHA;
C_m_s       C_m_s [0 0 0 0 0 0 0]  $SITE_DENSITY_ELECTRODE;
C_m_s_r     C_m_s_r [0 -3 0 0 1 0 0] 76400;
C_m_l       C_m_l [0 0 0 0 0 0 0]  $SITE_DENSITY_ELECTROLYTE;
C_m_l_r     C_m_l_r [0 -3 0 0 1 0 0] 14400;
C_0         C_0 [0 0 0 0 0 0 0]  $BULK_ELECTROLYTE_CONCENTRATION;
C_0_r       C_0_r [0 -3 0 0 1 0 0] 1000;
S_s         S_s [-1 -3 3 0 0 2 0]  $ELECTRODE_CONDUCTIVITY;
S_l         S_l [-1 -3 3 0 0 2 0]  $ELECTROLYTE_CONDUCTIVITY;
D_s         D_s [0 0 0 0 0 0 0] 0.75;
D_l         D_l [0 0 0 0 0 0 0] 319.7;
D           D [0 0 0 0 0 0 0]  $DIFFUSIVITY;
n           n [0 0 0 0 0 0 0]  $NUM_MOLES;
F           F [0 0 1 0 -1 1 0]  $FARADAYS_CONSTANT;
R           R [1 2 -2 -1 -1 0 0]  $GAS_CONSTANT;
T           T [0 0 0 1 0 0 0]  $TEMPERATURE;
e_s         e_s [0 0 0 0 0 0 0]  $EPSILON_ELECTRODE;
e_l         e_l [0 0 0 0 0 0 0]  $EPSILON_ELECTROLYTE;
dx          dx [0 0 0 0 0 0 0] 1;
dt          dt [0 0 0 0 0 0 0] 1;







// m_0         m_0 [0 0 0 0 0 0 0] 1e9;
// m_1         m_1 [0 0 0 0 0 0 0] 0.45;
// //omega       omega [0 0 0 0 0 0 0] 1.687331;
// gamma       gamma [0 0 0 0 0 0 0] 1;
// //epsilon     epsilon [0 0 0 0 0 0 0] 48;
// epsilon     epsilon [0 0 0 0 0 0 0] 4;
// c_Sol       c_Sol [0 0 0 0 0 0 0] 0.7815;
// c_Liq       c_Liq [0 0 0 0 0 0 0] 0.5;
// c_eq        c_eq [0 0 0 0 0 0 0] 0.5;
// diff_Sol    diff_Sol [0 0 0 0 0 0 0] 1;
// diff_Liq    diff_Liq [0 0 0 0 0 0 0] 1;
// anti_trap   anti_trap [0 0 0 0 0 0 0] 0.35355;//0.35355;  //1/(2sqrt(2))
// G           G [0 0 0 0 0 0 0] 0;
// v           v [0 0 0 0 0 0 0] 0.000;
// noise_mag           noise_mag [0 0 0 0 0 0 0] 0.003;
// initial           initial [0 0 0 0 0 0 0] 0.8;
// T0         	 T0 [0 0 0 0 0 0 0] 1.0;
// T         	 T0 [0 0 0 0 0 0 0] 0.95;
// delta_01         delta_01 [0 0 0 0 0 0 0] 0.02;
// A            A [0 0 0 0 0 0 0] 1;
// 
// dcdmu_1[0][0]   0.6666;
// dcdmu_1[0][1]  -0.3333;
// dcdmu_1[1][0]  -0.3333;
// dcdmu_1[1][1]   0.6666;
// 
// dcdmu_2[0][0]   0.6666;
// dcdmu_2[0][1]  -0.3333;
// dcdmu_2[1][0]  -0.3333;
// dcdmu_2[1][1]   0.6666;
// 
// D_1[0][0]       1.0;
// D_1[1][1]       1.0;
// D_1[0][1]       0.0;
// D_1[1][0]       0.0;
// 
// D_2[0][0]       1.0;
// D_2[1][1]       1.0;
// D_2[0][1]       0.0;
// D_2[1][0]       0.0;
// 
// ceq_1[0][0]     0.1;
// ceq_1[1][0]     0.8;
// 
// ceq_2[0][0]     0.6;
// ceq_2[1][0]     0.3;
// 
// mu_eq[0][0]     1.0;
// mu_eq[1][0]     1.0;



// ************************************************************************* //
